<configuration>
    <input>
        <net-file value="Network.net.xml"/>
        <route-files value="Route.rou.xml"/>
        <additional-files value="Induction_loop.xml"/>
	
    </input>
    <time>
        <begin value="0"/>
        <end value="100000"/>
    </time>


</configuration>
